     6
 Generated by Multiwfn
C      -0.00927182      0.00000000     -2.01969707
C      -0.00927182      0.00000000     -0.68767413
H      -0.00927182      0.92279087     -2.58157220
H      -0.00927182     -0.92279087     -2.58157219
H      -0.00927182      0.92279087     -0.12579900
H      -0.00927182     -0.92279087     -0.12579900
